Version 4.1
SHEET 1 2220 680
WIRE -400 -112 -496 -112
WIRE -272 -112 -320 -112
WIRE -496 -64 -496 -112
WIRE 368 16 304 16
WIRE -496 48 -496 16
WIRE -16 48 -16 -16
WIRE -16 48 -80 48
WIRE 96 48 -16 48
WIRE 128 48 96 48
WIRE 128 64 128 48
WIRE 144 64 128 64
WIRE 224 96 224 64
WIRE 256 96 224 96
WIRE 144 128 96 128
WIRE 304 128 304 112
WIRE 304 128 144 128
WIRE 368 128 368 16
WIRE 560 128 368 128
WIRE 304 144 304 128
WIRE 384 144 304 144
WIRE 448 144 384 144
WIRE 512 144 448 144
WIRE 144 160 96 160
WIRE 304 160 304 144
WIRE 304 160 144 160
WIRE 304 208 304 160
WIRE 512 208 512 144
WIRE 144 224 128 224
WIRE 256 224 224 224
WIRE 96 240 -80 240
WIRE 128 240 128 224
WIRE 128 240 96 240
WIRE 560 256 560 128
WIRE 560 256 368 256
WIRE 368 304 368 256
WIRE 368 304 304 304
FLAG -496 48 0
FLAG -496 -112 VCC
FLAG 384 208 0
FLAG 448 208 0
FLAG 512 208 0
SYMBOL voltage -496 -80 R0
WINDOW 0 24 16 Left 0
WINDOW 3 24 96 Left 0
WINDOW 123 0 0 Left 0
WINDOW 39 0 0 Left 0
SYMATTR InstName V1
SYMATTR Value 24
SYMBOL res -304 -128 R90
WINDOW 0 0 56 VBottom 0
WINDOW 3 32 56 VTop 0
SYMATTR InstName R1
SYMATTR Value 25R
SYMBOL nmos 256 16 R0
WINDOW 0 57 34 Left 0
WINDOW 3 59 50 Left 0
SYMATTR InstName Q33
SYMATTR Value IRF630
SYMBOL nmos 256 304 M180
WINDOW 0 59 33 Left 0
WINDOW 3 60 53 Left 0
SYMATTR InstName Q34
SYMATTR Value IRF630
SYMBOL res 240 208 R90
WINDOW 0 42 63 VBottom 0
WINDOW 3 49 63 VTop 0
SYMATTR InstName R115
SYMATTR Value 33R
SYMBOL res 240 48 R90
WINDOW 0 -16 59 VBottom 0
WINDOW 3 -18 62 VTop 0
SYMATTR InstName R114
SYMATTR Value 33R
SYMBOL cap 368 144 R0
WINDOW 0 24 8 Left 0
WINDOW 3 24 56 Left 0
SYMATTR InstName C150
SYMATTR Value 1n
SYMBOL cap 432 144 R0
WINDOW 0 24 8 Left 0
WINDOW 3 24 56 Left 0
SYMATTR InstName C152
SYMATTR Value 100n
SYMBOL zener 160 128 R180
WINDOW 0 -23 28 Left 0
WINDOW 3 -37 14 Left 0
SYMATTR InstName D18
SYMATTR Value 1N4744A
SYMBOL zener 128 160 R0
WINDOW 0 32 5 Left 0
WINDOW 3 33 16 Left 0
SYMATTR InstName D16
SYMATTR Value 1N4744A
SYMBOL res 112 144 R180
WINDOW 0 36 76 Left 0
WINDOW 3 36 40 Left 0
SYMATTR InstName R112
SYMATTR Value 100k
SYMBOL res 112 256 R180
WINDOW 0 36 76 Left 0
WINDOW 3 36 40 Left 0
SYMATTR InstName R110
SYMATTR Value 100K
SYMBOL res -64 32 R90
WINDOW 0 0 56 VBottom 0
WINDOW 3 32 56 VTop 0
SYMATTR InstName R98
SYMATTR Value 4R7
SYMBOL res -64 224 R90
WINDOW 0 0 56 VBottom 0
WINDOW 3 32 56 VTop 0
SYMATTR InstName R99
SYMATTR Value 4R7
SYMBOL res -32 -112 R0
WINDOW 0 36 40 Left 0
WINDOW 3 36 76 Left 0
SYMATTR InstName R106
SYMATTR Value 125R
