.model IRF630 VDMOS(nchan Vds=200 Rd=0.3 Rs=0.1 Vto=3.0 Kp=3.5 Cgdmax=1.5n Cgdmin=0.05n Cgs=0.8n Cjo=0.8n Is=2.5p Rb=0.1 mfg=Vishay Vswitch=10 Ron=400m Qg=20n)
